/*--------------------------------*- C++ -*----------------------------------*\
| =========                 |                                                 |
| \\      /  F ield         | OpenFOAM: The Open Source CFD Toolbox           |
|  \\    /   O peration     | Version:  1.7.0                                 |
|   \\  /    A nd           | Web:      www.OpenFOAM.com                      |
|    \\/     M anipulation  |                                                 |
\*---------------------------------------------------------------------------*/
FoamFile
{
    version     2.0;
    format      ascii;
    class       dictionary;
    object      blockMeshDict;
}
// * * * * * * * * * * * * * * * * * * * * * * * * * * * * * * * * * * * * * //
convertToMeters 1e-3;

vertices        
(
//First Block
	//Back face
	(0          0          0)           //00
	(0.5     0          0)           //01
	(0.5     10      0)           //02
	(0          10      0)           //03
	//Front face
	(0         0          0.05)      //04
	(0.5    0          0.05)      //05
	(0.5    10      0.05)      //06
	(0         10      0.05)      //07
);

blocks          
(
	hex ( 0  1  2  3  4  5  6  7) (150 300 1) simpleGrading (10 0.1 1)	//00
);

edges           
(
);

boundary         
(
	Inlet
	{
		type            patch;
		faces
		(
			( 2  3  7  6)
		);
	}

	BotOutlet
	{
		type            patch;
		faces
		(
			( 0  1  5  4)
		);
	}

	FreeStream
	{
		type     patch;
		faces
		(
			(1 2 6 5)
		);
	}

	FrontNBack
	{
		type     empty;
		faces		
		(
			( 0  3  2  1)
			( 4  5  6  7)
 
		);
	}

	LeftSide
	{
		type     wall;
		faces
		(
			( 0  4  7  3)
		);
	}

);

mergePatchPairs 
();

// ************************************************************************* //
