/*--------------------------------*- C++ -*----------------------------------*\
| =========                 |                                                 |
| \\      /  F ield         | OpenFOAM: The Open Source CFD Toolbox           |
|  \\    /   O peration     | Version:  2.4.x                                 |
|   \\  /    A nd           | Web:      www.OpenFOAM.org                      |
|    \\/     M anipulation  |                                                 |
\*---------------------------------------------------------------------------*/
FoamFile
{
    version     2.0;
    format      binary;
    class       polyBoundaryMesh;
    location    "constant/polyMesh";
    object      boundary;
}
// * * * * * * * * * * * * * * * * * * * * * * * * * * * * * * * * * * * * * //

5
(
    Bottom
    {
        type            patch;
        nFaces          256;
        startFace       130560;
    }
    FarStream
    {
        type            patch;
        nFaces          256;
        startFace       130816;
    }
    Top
    {
        type            patch;
        nFaces          256;
        startFace       131072;
    }
    Axis
    {
        type            symmetryPlane;
        inGroups        1(symmetryPlane);
        nFaces          256;
        startFace       131328;
    }
    FrontNBack
    {
        type            empty;
        inGroups        1(empty);
        nFaces          131072;
        startFace       131584;
    }
)

// ************************************************************************* //
