/*--------------------------------*- C++ -*----------------------------------*\
| =========                 |                                                 |
| \\      /  F ield         | OpenFOAM: The Open Source CFD Toolbox           |
|  \\    /   O peration     | Version:  2.4.x                                 |
|   \\  /    A nd           | Web:      www.OpenFOAM.org                      |
|    \\/     M anipulation  |                                                 |
\*---------------------------------------------------------------------------*/
FoamFile
{
    version     2.0;
    format      ascii;
    class       polyBoundaryMesh;
    location    "constant/polyMesh";
    object      boundary;
}
// * * * * * * * * * * * * * * * * * * * * * * * * * * * * * * * * * * * * * //

5
(
    Inlet
    {
        type            patch;
        nFaces          150;
        startFace       89550;
    }
    BotOutlet
    {
        type            patch;
        nFaces          150;
        startFace       89700;
    }
    FreeStream
    {
        type            patch;
        nFaces          300;
        startFace       89850;
    }
    FrontNBack
    {
        type            empty;
        inGroups        1(empty);
        nFaces          90000;
        startFace       90150;
    }
    LeftSide
    {
        type            wall;
        inGroups        1(wall);
        nFaces          300;
        startFace       180150;
    }
)

// ************************************************************************* //
